

 <DUALSPHYSICS5> Copyright (c) 2025 by
 Dr Jose M. Dominguez Alonso, Prof. Alejandro Crespo,
 Dr Georgios Fourtakas, Prof. Benedict Rogers,
 Dr Renato Vacondio, Dr Corrado Altomare,
 Dr Angelo Tafuni, Dr Orlando Garcia Feal,
 Dr Ivan Martinez Estevez, Dr Joseph O'Connor,
 Dr Aaron English, Dr Francesco Ricci,
 Prof. Moncho Gomez Gesteira, Prof. Peter Stansby

 EPHYSLAB Environmental Physics Laboratory, Universidade de Vigo
 School of Mechanical, Aerospace and Civil Engineering, University of Manchester

 DualSPHysics is free software: you can redistribute it and/or
 modify it under the terms of the GNU Lesser General Public License
 as published by the Free Software Foundation, either version 2.1 of
 the License, or (at your option) any later version.

 DualSPHysics is distributed in the hope that it will be useful,
 but WITHOUT ANY WARRANTY; without even the implied warranty of
 MERCHANTABILITY or FITNESS FOR A PARTICULAR PURPOSE.  See the
 GNU Lesser General Public License for more details.

 You should have received a copy of the GNU Lesser General Public License
 along with DualSPHysics. If not, see <http://www.gnu.org/licenses/>.

 Free download source files and documentation from DualSPHysics website (http://dual.sphysics.org).
 Full list of developers and contributors is available at https://dual.sphysics.org/developers
 Properly cite the use of DualSPHysics (Dominguez et al., 2022) (https://dual.sphysics.org/references).


DualSPHysics5 v5.4.355 (08-04-2025)
====================================
LoadDsphConfig> .../bin/windows/DsphConfig.xml
Threads by host for parallel execution: 24

[Initialising JSphCpuSingle  26-10-2025 19:55:24]
ProgramFile=".../bin/windows/DualSPHysics5.4CPU_win64.exe"
Available features: Project Chrono coupling, MoorDynPlus coupling, Wave generation, FlexStruc, mDBC no-slip, OpenMP execution.
ExecutionDir=".../agniv/Autoslosh/Autoslosh__dp-0p002__t-4__f-4__a-6deg"
XmlFile=".../Autoslosh/Autoslosh__dp-0p002__t-4__f-4__a-6deg/0.002.xml"
OutputDir=".../Autoslosh/Autoslosh__dp-0p002__t-4__f-4__a-6deg/out"
OutputDataDir=".../Autoslosh__dp-0p002__t-4__f-4__a-6deg/out/data"
XML-App: GenCase v5.4.354.01 (07-04-2025)
**Basic case configuration is loaded
**Special case configuration is loaded
Loading initial state of particles...
Loaded particles: 14,641
MapRealPos(border)=(-0.45017,-0.000169706,0.0798303)-(0.43017,0.000169706,0.48017)
MapRealPos(final)=(-0.6,-0.000169706,-0.5)-(0.6,0.000169706,1)
**Initial state of particles is loaded
**2D-Simulation parameters:
CaseName="0.002"
RunName="0.002"
Simulate2DPosY=0
SavePosDouble=False
SvExtraParts=""
SaveFtAce=False
SvTimers=True
Boundary="DBC"
StepAlgorithm="Symplectic"
Kernel="Wendland"
  Wendland.awen=48350.7
  Wendland.bwenh=-2.098705e+10
Viscosity="Artificial"
  Visco=0.05
  ViscoBoundFactor=1
DensityDiffusion="None"
Shifting="None"
RigidAlgorithm="None"
FloatingCount=0
CaseNp=14,641
CaseNbound=1,280
CaseNfixed=0
CaseNmoving=1,280
CaseNfloat=0
CaseNfluid=13,361
PeriodicActive="None"
Dp=0.002
KernelH=0.003394  (CoefficientH=1.2; H/Dp=1.69706)
KernelSize=0.006788225
CteB=33634.29
Gamma=7
RhopZero=1000
Cs0=15.34405409576459
CFLnumber=0.2
DtIni=0.000221200501210877
DtMin=1.106002522535107e-05
DtAllParticles=False
MassFluid=0.004
MassBound=0.004
TimeMax=4
TimePart=0.01
Gravity=(0,0,-9.81)
RhopOut=True
RhopOutMin=700
RhopOutMax=1300
WrnPartsOut=True
MinFluidStop=0
NpfMinimum=0
CellMode="Full"
ScellDiv=1
MapCells=(177,1,221)  (39,117 cells)
CellDomFixed=False
DomCells=(177,1,221)  (39,117 cells)
DomCellCode="1+13_6_12"
**CellDiv: Requested cpu memory for 15,501 particles (over-allocation: 1.06X): 0.5 MiB (1 times).
**CellDiv: Requested CPU memory for 39,117 cells (over-allocation: 25.07X): 0.6 MiB (1 times).
 
RunMode="Pos-Double - OpenMP(Threads:24)"
 
Particle summary:
  Fixed....: 0
  Moving...: 1,280  id:(0-1279)   MKs:1 (11)
  Floating.: 0
  Fluid....: 13,361  id:(1280-14640)   MKs:1 (1)

Total particles: 14,641 (bound=1280 (fx=0 mv=1280 ft=0) fluid=13361)
Total MK blocks: 2 (bound=1 (fx=0 mv=1 ft=0) fluid=1)
 
Output particles filter configuration:
  Initial selection: ALL (lv: 0)
 

Initial allocated memory in CPU: 1,973,602 (1.88 MiB)  (5 particle arrays)
Part_0000        14,641 (100.0%) particles successfully stored

[Initialising simulation (a2v8to0l)  26-10-2025 19:55:24]
PART   PartTime   TotalSteps   Steps    Particles    Cells        Time/Sec   Finish time        
=====  =========  ===========  =======  ===========  ===========  =========  ===================
**Updated allocated memory in CPU: 3,228,967 (3.08 MiB)  (12 particle arrays)
00001   0.010013          317      317       14,641        1,572     111.75  26-10-2025 20:02:50
**Updated allocated memory in CPU: 3,258,505 (3.11 MiB)  (13 particle arrays)

*** WARNING: 1 DTs adjusted to DtMin (t:0.0131596, nstep:545)


*** WARNING: 10 DTs adjusted to DtMin (t:0.0132149, nstep:550)


*** WARNING: 100 DTs adjusted to DtMin (t:0.0137126, nstep:595)


*** WARNING: 1000 DTs adjusted to DtMin (t:0.0186896, nstep:1045)

00002   0.020010        1,164      847       14,640        1,834     306.26  26-10-2025 20:09:19
  Particles out: 1  (total out: 1)  -  Current np: 14,640
00003   0.030009        2,021      857       14,640        2,508     316.86  26-10-2025 20:11:43
00004   0.040016        2,725      704       14,640        3,275     261.78  26-10-2025 20:12:00
00005   0.050010        3,322      597       14,640        4,061     222.72  26-10-2025 20:11:39
00006   0.060010        3,874      552       14,640        4,847     206.95  26-10-2025 20:11:14
00007   0.070013        4,486      612       14,640        5,460     232.26  26-10-2025 20:11:11
00008   0.080004        5,340      854       14,640        5,850     323.40  26-10-2025 20:11:55
00009   0.090010        6,198      858       14,630        6,288     327.04  26-10-2025 20:12:30
  Particles out: 10  (total out: 11)  -  Current np: 14,630
00010   0.100006        7,100      902       14,629        6,732     342.22  26-10-2025 20:13:04
  Particles out: 1  (total out: 12)  -  Current np: 14,629
00011   0.110004        8,004      904       14,629        7,074     344.10  26-10-2025 20:13:33
00012   0.120002        8,908      904       14,629        7,392     345.13  26-10-2025 20:13:57

*** WARNING: 10000 DTs adjusted to DtMin (t:0.123552, nstep:9229)

00013   0.130000        9,812      904       14,629        7,729     349.00  26-10-2025 20:14:19
00014   0.140010       10,717      905       14,628        7,860     375.07  26-10-2025 20:14:44
  Particles out: 1  (total out: 13)  -  Current np: 14,628
00015   0.150002       11,616      899       14,624        8,712     365.65  26-10-2025 20:15:05
  Particles out: 4  (total out: 17)  -  Current np: 14,624
00016   0.160004       12,451      835       14,624        8,844     327.17  26-10-2025 20:15:12
00017   0.170012       13,225      774       14,624        9,108     297.89  26-10-2025 20:15:13
00018   0.180010       13,976      751       14,624        9,310     286.43  26-10-2025 20:15:10
00019   0.190002       14,740      764       14,624        9,782     295.08  26-10-2025 20:15:10
00020   0.200005       15,545      805       14,624        9,720     308.29  26-10-2025 20:15:12
00021   0.210002       16,384      839       14,624        9,576     320.43  26-10-2025 20:15:16
00022   0.220002       17,256      872       14,623        9,240     332.84  26-10-2025 20:15:23
  Particles out: 1  (total out: 18)  -  Current np: 14,623
00023   0.230004       18,137      881       14,623        8,712     336.59  26-10-2025 20:15:29
00024   0.240008       19,025      888       14,623        8,384     339.60  26-10-2025 20:15:36
00025   0.250006       19,909      884       14,623        7,800     339.31  26-10-2025 20:15:42
00026   0.260010       20,775      866       14,623        8,184     330.09  26-10-2025 20:15:45
00027   0.270001       21,617      842       14,623        8,512     319.22  26-10-2025 20:15:47
00028   0.280001       22,498      881       14,622        8,775     333.64  26-10-2025 20:15:52
  Particles out: 1  (total out: 19)  -  Current np: 14,622
00029   0.290006       23,382      884       14,621        8,910     334.69  26-10-2025 20:15:55
  Particles out: 1  (total out: 20)  -  Current np: 14,621
00030   0.300007       24,254      872       14,621        9,045     329.46  26-10-2025 20:15:58
00031   0.310000       25,128      874       14,621        9,112     329.52  26-10-2025 20:16:01
00032   0.320002       25,924      796       14,621        9,180     299.01  26-10-2025 20:16:00
00033   0.330010       26,639      715       14,620        9,045     268.60  26-10-2025 20:15:54
  Particles out: 1  (total out: 21)  -  Current np: 14,620
00034   0.340004       27,336      697       14,620        8,844     262.21  26-10-2025 20:15:49
00035   0.350009       28,179      843       14,614        8,710     316.23  26-10-2025 20:15:50
  Particles out: 6  (total out: 27)  -  Current np: 14,614
00036   0.360007       29,083      904       14,604        8,448     340.37  26-10-2025 20:15:55
  Particles out: 10  (total out: 37)  -  Current np: 14,604
00037   0.370006       29,987      904       14,603        8,052     339.73  26-10-2025 20:15:58
  Particles out: 1  (total out: 38)  -  Current np: 14,603
00038   0.380004       30,891      904       14,602        7,991     341.00  26-10-2025 20:16:01
  Particles out: 1  (total out: 39)  -  Current np: 14,602
00039   0.390002       31,791      900       14,601        8,122     340.34  26-10-2025 20:16:04
  Particles out: 1  (total out: 40)  -  Current np: 14,601
00040   0.400010       32,645      854       14,601        8,512     321.73  26-10-2025 20:16:05
00041   0.410003       33,387      742       14,601        8,645     279.72  26-10-2025 20:16:03
00042   0.420014       34,085      698       14,601        8,844     263.08  26-10-2025 20:15:58
00043   0.430010       34,790      705       14,601        8,910     265.80  26-10-2025 20:15:54
00044   0.440015       35,440      650       14,601        9,045     243.89  26-10-2025 20:15:49
00045   0.450005       36,068      628       14,601        9,180     235.29  26-10-2025 20:15:42
00046   0.460011       36,733      665       14,600        9,514     249.33  26-10-2025 20:15:37
  Particles out: 1  (total out: 41)  -  Current np: 14,600
00047   0.470004       37,479      746       14,598        9,246     280.76  26-10-2025 20:15:35
  Particles out: 2  (total out: 43)  -  Current np: 14,598
00048   0.480013       38,345      866       14,598        8,645     324.92  26-10-2025 20:15:37
00049   0.490006       39,032      687       14,598        8,184     259.27  26-10-2025 20:15:33
00050   0.500013       39,594      562       14,598        7,800     212.83  26-10-2025 20:15:26
00051   0.510005       40,137      543       14,598        8,122     205.79  26-10-2025 20:15:19
00052   0.520011       40,732      595       14,598        8,384     223.80  26-10-2025 20:15:13
00053   0.530009       41,358      626       14,598        8,712     234.34  26-10-2025 20:15:08
00054   0.540009       41,964      606       14,598        8,844     225.97  26-10-2025 20:15:03
00055   0.550009       42,561      597       14,598        8,976     222.33  26-10-2025 20:14:58
00056   0.560001       43,181      620       14,598        9,044     231.07  26-10-2025 20:14:54
00057   0.570000       44,040      859       14,598        8,976     319.18  26-10-2025 20:14:55
00058   0.580014       44,799      759       14,595        8,844     280.92  26-10-2025 20:14:55
  Particles out: 3  (total out: 46)  -  Current np: 14,595
00059   0.590010       45,445      646       14,595        8,712     238.43  26-10-2025 20:14:51
00060   0.600013       46,137      692       14,595        8,512     255.49  26-10-2025 20:14:49
00061   0.610007       46,810      673       14,595        8,316     249.98  26-10-2025 20:14:46
00062   0.620018       47,350      540       14,595        8,052     201.50  26-10-2025 20:14:40
00063   0.630007       47,917      567       14,595        7,991     216.27  26-10-2025 20:14:35
00064   0.640016       48,437      520       14,595        8,122     197.07  26-10-2025 20:14:29
00065   0.650001       48,961      524       14,595        8,384     200.01  26-10-2025 20:14:24
00066   0.660014       49,478      517       14,595        8,515     193.26  26-10-2025 20:14:19
00067   0.670008       49,971      493       14,595        8,646     183.81  26-10-2025 20:14:13
00068   0.680007       50,496      525       14,595        8,844     194.52  26-10-2025 20:14:08
00069   0.690015       51,013      517       14,595        8,908     191.77  26-10-2025 20:14:03
00070   0.700018       51,493      480       14,595        8,777     178.33  26-10-2025 20:13:57
00071   0.710004       52,009      516       14,595        8,710     194.05  26-10-2025 20:13:52
00072   0.720008       52,617      608       14,595        8,646     226.33  26-10-2025 20:13:49
00073   0.730010       53,342      725       14,595        8,253     270.19  26-10-2025 20:13:49
00074   0.740013       54,064      722       14,595        8,122     273.14  26-10-2025 20:13:48
00075   0.750014       54,655      591       14,595        7,800     222.89  26-10-2025 20:13:45
00076   0.760007       55,308      653       14,595        8,184     246.02  26-10-2025 20:13:44
00077   0.770005       55,978      670       14,595        8,316     250.26  26-10-2025 20:13:42
00078   0.780009       56,692      714       14,594        8,645     268.64  26-10-2025 20:13:42
  Particles out: 1  (total out: 47)  -  Current np: 14,594
00079   0.790017       57,256      564       14,594        8,844     210.07  26-10-2025 20:13:39
00080   0.800005       57,860      604       14,594        8,978     226.48  26-10-2025 20:13:37
00081   0.810008       58,615      755       14,594        9,045     281.34  26-10-2025 20:13:37
00082   0.820015       59,346      731       14,590        8,978     273.14  26-10-2025 20:13:37
  Particles out: 4  (total out: 51)  -  Current np: 14,590
00083   0.830008       59,940      594       14,590        8,844     220.75  26-10-2025 20:13:34
00084   0.840013       60,438      498       14,590        8,710     184.88  26-10-2025 20:13:30
00085   0.850001       61,122      684       14,590        8,576     254.89  26-10-2025 20:13:30
00086   0.860001       61,819      697       14,590        8,316     260.34  26-10-2025 20:13:29
00087   0.870010       62,412      593       14,590        8,052     222.40  26-10-2025 20:13:26
00088   0.880005       63,097      685       14,590        7,991     257.21  26-10-2025 20:13:26
00089   0.890010       63,854      757       14,590        8,253     284.23  26-10-2025 20:13:27
00090   0.900014       64,472      618       14,590        8,580     231.58  26-10-2025 20:13:25
00091   0.910016       64,935      463       14,590        8,646     172.59  26-10-2025 20:13:21
00092   0.920003       65,341      406       14,590        8,777     151.50  26-10-2025 20:13:15
00093   0.930023       65,731      390       14,590        8,844     144.84  26-10-2025 20:13:11
00094   0.940005       66,169      438       14,590        8,976     164.51  26-10-2025 20:13:07
00095   0.950017       66,625      456       14,590        8,844     169.14  26-10-2025 20:13:02
00096   0.960000       67,161      536       14,590        8,710     200.29  26-10-2025 20:12:59
00097   0.970004       67,714      553       14,590        8,646     208.25  26-10-2025 20:12:57
00098   0.980016       68,248      534       14,590        8,384     199.96  26-10-2025 20:12:54
00099   0.990009       68,741      493       14,590        8,122     186.24  26-10-2025 20:12:51
00100   1.000004       69,241      500       14,590        7,800     189.62  26-10-2025 20:12:48
00101   1.010014       69,837      596       14,590        8,122     224.05  26-10-2025 20:12:47
00102   1.020021       70,341      504       14,590        8,253     187.57  26-10-2025 20:12:44
00103   1.030023       70,798      457       14,590        8,580     169.59  26-10-2025 20:12:41
00104   1.040014       71,386      588       14,590        8,646     218.20  26-10-2025 20:12:39
00105   1.050004       72,015      629       14,590        8,777     232.68  26-10-2025 20:12:38
00106   1.060021       72,494      479       14,590        8,844     177.81  26-10-2025 20:12:35
00107   1.070018       72,927      433       14,590        8,777     160.29  26-10-2025 20:12:32
00108   1.080002       73,345      418       14,590        8,646     155.69  26-10-2025 20:12:27
00109   1.090004       73,790      445       14,590        8,515     164.83  26-10-2025 20:12:24
00110   1.100014       74,329      539       14,590        8,384     199.54  26-10-2025 20:12:22
00111   1.110026       74,752      423       14,590        8,253     157.33  26-10-2025 20:12:19
00112   1.120009       75,135      383       14,590        7,991     143.91  26-10-2025 20:12:15
00113   1.130013       75,536      401       14,590        7,991     150.79  26-10-2025 20:12:12
00114   1.140019       75,893      357       14,590        8,253     136.74  26-10-2025 20:12:07
00115   1.150014       76,280      387       14,590        8,580     144.01  26-10-2025 20:12:03
00116   1.160011       76,695      415       14,590        8,712     154.37  26-10-2025 20:12:00
00117   1.170020       77,124      429       14,590        8,844     158.77  26-10-2025 20:11:57
00118   1.180008       77,591      467       14,590        8,911     173.74  26-10-2025 20:11:54
00119   1.190006       78,054      463       14,590        8,976     172.25  26-10-2025 20:11:52
00120   1.200015       78,498      444       14,590        8,844     166.03  26-10-2025 20:11:50
00121   1.210011       79,016      518       14,590        8,777     193.61  26-10-2025 20:11:48
00122   1.220007       79,584      568       14,590        8,646     213.22  26-10-2025 20:11:47
00123   1.230005       80,169      585       14,590        8,448     219.35  26-10-2025 20:11:46
00124   1.240009       80,799      630       14,590        8,122     237.69  26-10-2025 20:11:45
00125   1.250004       81,419      620       14,590        7,800     234.90  26-10-2025 20:11:45
00126   1.260000       82,082      663       14,590        7,991     249.83  26-10-2025 20:11:45
00127   1.270015       82,631      549       14,590        8,253     204.61  26-10-2025 20:11:44
00128   1.280014       83,122      491       14,590        8,448     181.70  26-10-2025 20:11:42
00129   1.290015       83,710      588       14,590        8,580     217.91  26-10-2025 20:11:41
00130   1.300000       84,208      498       14,590        8,712     184.89  26-10-2025 20:11:39
00131   1.310012       84,817      609       14,590        8,844     225.86  26-10-2025 20:11:38
00132   1.320006       85,612      795       14,590        8,911     294.87  26-10-2025 20:11:40
00133   1.330008       86,515      903       14,587        8,778     334.89  26-10-2025 20:11:43
  Particles out: 3  (total out: 54)  -  Current np: 14,587
00134   1.340007       87,419      904       14,587        8,645     340.27  26-10-2025 20:11:46
00135   1.350001       88,322      903       14,587        8,512     335.50  26-10-2025 20:11:48
00136   1.360012       89,156      834       14,587        8,316     312.09  26-10-2025 20:11:50
00137   1.370004       89,744      588       14,587        8,052     221.30  26-10-2025 20:11:50
00138   1.380024       90,183      439       14,587        7,991     165.62  26-10-2025 20:11:47
00139   1.390020       90,594      411       14,587        8,253     154.47  26-10-2025 20:11:45
00140   1.400018       91,027      433       14,587        8,580     163.38  26-10-2025 20:11:42
00141   1.410019       91,444      417       14,587        8,712     155.21  26-10-2025 20:11:40
00142   1.420013       91,842      398       14,587        8,911     148.33  26-10-2025 20:11:37
00143   1.430017       92,415      573       14,587        8,978     212.72  26-10-2025 20:11:37
00144   1.440012       92,930      515       14,587        9,044     191.82  26-10-2025 20:11:35
00145   1.450007       93,518      588       14,587        8,978     219.63  26-10-2025 20:11:34
00146   1.460003       94,286      768       14,587        8,911     287.00  26-10-2025 20:11:36
00147   1.470009       95,067      781       14,587        8,778     295.59  26-10-2025 20:11:37
00148   1.480010       95,939      872       14,586        8,512     333.38  26-10-2025 20:11:39
  Particles out: 1  (total out: 55)  -  Current np: 14,586
00149   1.490017       96,552      613       14,586        8,253     236.49  26-10-2025 20:11:39
00150   1.500007       97,160      608       14,586        7,800     234.47  26-10-2025 20:11:39
00151   1.510014       97,744      584       14,586        8,122     221.10  26-10-2025 20:11:38
00152   1.520014       98,238      494       14,586        8,253     188.26  26-10-2025 20:11:37
00153   1.530018       98,692      454       14,586        8,515     170.65  26-10-2025 20:11:34
00154   1.540007       99,127      435       14,586        8,646     163.26  26-10-2025 20:11:33
00155   1.550025       99,526      399       14,586        8,777     149.08  26-10-2025 20:11:31
00156   1.560004       99,915      389       14,586        8,777     145.48  26-10-2025 20:11:28
00157   1.570007      100,307      392       14,586        8,710     147.49  26-10-2025 20:11:25
00158   1.580021      100,689      382       14,586        8,646     142.55  26-10-2025 20:11:23
00159   1.590023      101,096      407       14,586        8,515     152.16  26-10-2025 20:11:20
00160   1.600002      101,500      404       14,586        8,384     152.86  26-10-2025 20:11:19
00161   1.610009      101,955      455       14,586        8,253     170.33  26-10-2025 20:11:17
00162   1.620005      102,406      451       14,586        7,991     170.13  26-10-2025 20:11:15
00163   1.630001      102,860      454       14,586        7,991     173.17  26-10-2025 20:11:14
00164   1.640013      103,373      513       14,586        8,253     194.08  26-10-2025 20:11:13
00165   1.650010      103,969      596       14,586        8,253     224.96  26-10-2025 20:11:12
00166   1.660007      104,466      497       14,586        8,515     186.12  26-10-2025 20:11:11
00167   1.670002      104,972      506       14,586        8,580     190.80  26-10-2025 20:11:10
00168   1.680001      105,532      560       14,586        8,778     208.82  26-10-2025 20:11:09
00169   1.690009      106,231      699       14,586        9,112     261.60  26-10-2025 20:11:10
00170   1.700007      107,009      778       14,583        9,045     292.35  26-10-2025 20:11:12
  Particles out: 3  (total out: 58)  -  Current np: 14,583
00171   1.710005      107,893      884       14,581        8,978     331.59  26-10-2025 20:11:13
  Particles out: 2  (total out: 60)  -  Current np: 14,581
00172   1.720005      108,788      895       14,581        8,844     340.22  26-10-2025 20:11:15
00173   1.730007      109,612      824       14,581        8,512     307.90  26-10-2025 20:11:17
00174   1.740011      110,374      762       14,581        8,316     285.64  26-10-2025 20:11:18
00175   1.750016      110,988      614       14,581        7,800     233.63  26-10-2025 20:11:19
00176   1.760010      111,554      566       14,581        8,122     211.03  26-10-2025 20:11:18
00177   1.770018      112,074      520       14,581        8,253     192.46  26-10-2025 20:11:17
00178   1.780007      112,688      614       14,581        8,384     227.82  26-10-2025 20:11:17
00179   1.790009      113,260      572       14,581        8,515     213.15  26-10-2025 20:11:16
00180   1.800020      113,811      551       14,581        8,777     205.45  26-10-2025 20:11:15
00181   1.810012      114,259      448       14,581        8,844     168.55  26-10-2025 20:11:14
00182   1.820020      114,763      504       14,581        8,777     190.65  26-10-2025 20:11:13
00183   1.830017      115,138      375       14,581        8,646     141.59  26-10-2025 20:11:10
00184   1.840027      115,491      353       14,581        8,515     132.49  26-10-2025 20:11:09
00185   1.850011      115,840      349       14,581        8,384     130.98  26-10-2025 20:11:06
00186   1.860013      116,365      525       14,581        8,253     195.70  26-10-2025 20:11:05
00187   1.870011      116,876      511       14,581        7,991     191.54  26-10-2025 20:11:05
00188   1.880001      117,360      484       14,581        7,991     183.43  26-10-2025 20:11:04
00189   1.890007      118,053      693       14,579        8,253     263.64  26-10-2025 20:11:04
  Particles out: 2  (total out: 62)  -  Current np: 14,579
00190   1.900022      118,595      542       14,579        8,580     203.28  26-10-2025 20:11:03
00191   1.910013      119,018      423       14,579        8,712     158.87  26-10-2025 20:11:02
00192   1.920002      119,546      528       14,579        8,844     198.45  26-10-2025 20:11:01
00193   1.930007      120,227      681       14,579        8,911     256.03  26-10-2025 20:11:01
00194   1.940009      120,839      612       14,579        8,976     231.61  26-10-2025 20:11:01
00195   1.950001      121,483      644       14,579        8,844     242.35  26-10-2025 20:11:01
00196   1.960005      122,092      609       14,579        8,777     229.46  26-10-2025 20:11:01
00197   1.970003      122,723      631       14,578        8,646     240.82  26-10-2025 20:11:02
  Particles out: 1  (total out: 63)  -  Current np: 14,578
00198   1.980019      123,238      515       14,578        8,448     194.49  26-10-2025 20:11:01
00199   1.990004      123,678      440       14,578        8,253     167.91  26-10-2025 20:10:59
00200   2.000026      124,088      410       14,578        7,800     157.13  26-10-2025 20:10:58
00201   2.010006      124,544      456       14,578        8,052     174.32  26-10-2025 20:10:57
00202   2.020003      124,929      385       14,578        8,253     144.68  26-10-2025 20:10:55
00203   2.030028      125,287      358       14,578        8,580     133.06  26-10-2025 20:10:52
00204   2.040024      125,697      410       14,578        8,712     152.47  26-10-2025 20:10:51
00205   2.050025      126,123      426       14,578        8,844     158.17  26-10-2025 20:10:50
00206   2.060004      126,635      512       14,578        8,911     189.84  26-10-2025 20:10:48
00207   2.070017      127,070      435       14,578        8,844     160.77  26-10-2025 20:10:47
00208   2.080020      127,514      444       14,578        8,712     164.89  26-10-2025 20:10:47
00209   2.090008      127,963      449       14,578        8,580     166.42  26-10-2025 20:10:45
00210   2.100004      128,539      576       14,578        8,448     213.37  26-10-2025 20:10:45
00211   2.110004      129,003      464       14,578        8,253     172.01  26-10-2025 20:10:43
00212   2.120019      129,578      575       14,578        8,052     214.60  26-10-2025 20:10:43
00213   2.130001      130,092      514       14,578        8,122     194.02  26-10-2025 20:10:42
00214   2.140008      130,489      397       14,578        8,253     150.62  26-10-2025 20:10:41
00215   2.150006      130,855      366       14,578        8,448     137.37  26-10-2025 20:10:39
00216   2.160004      131,263      408       14,578        8,515     152.81  26-10-2025 20:10:38
00217   2.170020      131,641      378       14,578        8,646     140.92  26-10-2025 20:10:36
00218   2.180010      132,016      375       14,578        8,844     139.77  26-10-2025 20:10:35
00219   2.190008      132,408      392       14,578        8,976     147.10  26-10-2025 20:10:33
00220   2.200001      133,007      599       14,578        8,777     223.98  26-10-2025 20:10:33
00221   2.210009      133,449      442       14,578        8,710     164.80  26-10-2025 20:10:32
00222   2.220001      133,856      407       14,578        8,646     152.04  26-10-2025 20:10:30
00223   2.230003      134,312      456       14,578        8,384     171.16  26-10-2025 20:10:30
00224   2.240019      134,841      529       14,578        8,253     199.71  26-10-2025 20:10:29
00225   2.250010      135,350      509       14,578        7,800     192.94  26-10-2025 20:10:29
00226   2.260001      135,879      529       14,578        8,122     199.72  26-10-2025 20:10:28
00227   2.270007      136,369      490       14,578        8,253     182.95  26-10-2025 20:10:28
00228   2.280006      136,852      483       14,578        8,580     179.30  26-10-2025 20:10:27
00229   2.290017      137,306      454       14,578        8,646     168.46  26-10-2025 20:10:25
00230   2.300003      137,786      480       14,578        8,777     178.74  26-10-2025 20:10:25
00231   2.310008      138,290      504       14,578        8,777     186.79  26-10-2025 20:10:24
00232   2.320009      138,783      493       14,578        8,710     182.93  26-10-2025 20:10:24
00233   2.330022      139,272      489       14,578        8,580     181.72  26-10-2025 20:10:23
00234   2.340007      139,788      516       14,578        8,515     192.39  26-10-2025 20:10:23
00235   2.350018      140,347      559       14,578        8,384     208.16  26-10-2025 20:10:22
00236   2.360001      140,869      522       14,578        8,253     195.19  26-10-2025 20:10:22
00237   2.370017      141,419      550       14,578        7,991     206.30  26-10-2025 20:10:21
00238   2.380007      141,898      479       14,578        8,184     181.32  26-10-2025 20:10:21
00239   2.390003      142,381      483       14,578        8,316     183.43  26-10-2025 20:10:19
00240   2.400011      142,949      568       14,578        8,645     215.04  26-10-2025 20:10:20
00241   2.410015      143,430      481       14,578        8,844     181.40  26-10-2025 20:10:18
00242   2.420016      143,866      436       14,578        8,978     164.17  26-10-2025 20:10:18
00243   2.430008      144,338      472       14,578        9,112     177.62  26-10-2025 20:10:17
00244   2.440017      144,729      391       14,578        9,248     146.25  26-10-2025 20:10:16
00245   2.450024      145,085      356       14,578        9,112     132.91  26-10-2025 20:10:15
00246   2.460026      145,411      326       14,578        9,045     122.34  26-10-2025 20:10:13
00247   2.470009      145,751      340       14,578        8,844     127.52  26-10-2025 20:10:11
00248   2.480010      146,109      358       14,578        8,576     134.53  26-10-2025 20:10:09
00249   2.490003      146,565      456       14,578        8,316     172.05  26-10-2025 20:10:09
00250   2.500006      146,979      414       14,578        7,800     156.24  26-10-2025 20:10:08
00251   2.510018      147,351      372       14,578        8,052     139.60  26-10-2025 20:10:07
00252   2.520023      147,697      346       14,578        8,316     129.00  26-10-2025 20:10:05
00253   2.530019      148,058      361       14,578        8,645     133.89  26-10-2025 20:10:04
00254   2.540024      148,414      356       14,578        8,778     131.91  26-10-2025 20:10:02
00255   2.550019      148,774      360       14,578        8,911     133.36  26-10-2025 20:10:01
00256   2.560014      149,217      443       14,578        8,978     163.71  26-10-2025 20:10:00
00257   2.570007      149,879      662       14,577        8,911     244.50  26-10-2025 20:10:00
  Particles out: 1  (total out: 64)  -  Current np: 14,577
00258   2.580010      150,671      792       14,577        8,778     293.54  26-10-2025 20:10:01
00259   2.590006      151,391      720       14,576        8,645     268.35  26-10-2025 20:10:02
  Particles out: 1  (total out: 65)  -  Current np: 14,576
00260   2.600006      151,951      560       14,576        8,512     208.78  26-10-2025 20:10:02
00261   2.610005      152,507      556       14,576        8,316     207.65  26-10-2025 20:10:02
00262   2.620013      153,184      677       14,576        8,052     254.27  26-10-2025 20:10:03
00263   2.630003      153,861      677       14,576        8,122     254.89  26-10-2025 20:10:03
00264   2.640001      154,433      572       14,576        8,253     215.26  26-10-2025 20:10:03
00265   2.650019      154,953      520       14,576        8,580     194.14  26-10-2025 20:10:02
00266   2.660010      155,419      466       14,576        8,712     174.09  26-10-2025 20:10:02
00267   2.670006      155,860      441       14,576        8,908     163.97  26-10-2025 20:10:01
00268   2.680005      156,304      444       14,576        8,976     164.84  26-10-2025 20:10:00
00269   2.690002      156,780      476       14,576        9,108     178.93  26-10-2025 20:10:00
00270   2.700006      157,255      475       14,576        8,976     178.30  26-10-2025 20:09:59
00271   2.710011      157,851      596       14,576        8,777     221.47  26-10-2025 20:09:59
00272   2.720008      158,605      754       14,576        8,646     280.23  26-10-2025 20:10:00
00273   2.730009      159,215      610       14,576        8,384     226.85  26-10-2025 20:10:00
00274   2.740012      159,773      558       14,576        8,253     209.10  26-10-2025 20:10:00
00275   2.750005      160,434      661       14,576        7,800     248.50  26-10-2025 20:10:01
00276   2.760013      160,994      560       14,576        8,052     208.81  26-10-2025 20:10:00
00277   2.770023      161,470      476       14,576        8,316     175.86  26-10-2025 20:10:00
00278   2.780020      161,876      406       14,576        8,710     150.24  26-10-2025 20:09:59
00279   2.790017      162,382      506       14,576        8,844     187.31  26-10-2025 20:09:58
00280   2.800008      162,877      495       14,576        9,045     183.62  26-10-2025 20:09:58
00281   2.810012      163,376      499       14,575        8,976     186.80  26-10-2025 20:09:58
  Particles out: 1  (total out: 66)  -  Current np: 14,575
00282   2.820013      163,964      588       14,575        8,910     219.24  26-10-2025 20:09:57
00283   2.830007      164,477      513       14,575        8,775     191.41  26-10-2025 20:09:57
00284   2.840003      164,911      434       14,575        8,710     161.98  26-10-2025 20:09:57
00285   2.850012      165,505      594       14,575        8,576     221.71  26-10-2025 20:09:56
00286   2.860008      166,051      546       14,575        8,379     204.55  26-10-2025 20:09:56
00287   2.870003      166,518      467       14,575        8,052     175.60  26-10-2025 20:09:56
00288   2.880005      166,991      473       14,575        8,122     178.92  26-10-2025 20:09:55
00289   2.890004      167,479      488       14,575        8,253     182.85  26-10-2025 20:09:54
00290   2.900002      168,042      563       14,575        8,580     210.12  26-10-2025 20:09:54
00291   2.910008      168,603      561       14,575        8,712     208.82  26-10-2025 20:09:54
00292   2.920017      169,090      487       14,575        9,044     181.08  26-10-2025 20:09:54
00293   2.930008      169,579      489       14,575        9,112     181.88  26-10-2025 20:09:53
00294   2.940004      170,118      539       14,575        9,246     200.52  26-10-2025 20:09:53
00295   2.950004      170,534      416       14,575        9,112     154.69  26-10-2025 20:09:53
00296   2.960015      170,982      448       14,575        9,044     166.69  26-10-2025 20:09:51
00297   2.970007      171,390      408       14,575        8,778     152.35  26-10-2025 20:09:51
00298   2.980018      171,831      441       14,575        8,448     164.81  26-10-2025 20:09:49
00299   2.990020      172,250      419       14,575        8,253     157.95  26-10-2025 20:09:49
00300   3.000016      172,736      486       14,575        7,800     183.86  26-10-2025 20:09:49
00301   3.010003      173,232      496       14,575        8,184     185.90  26-10-2025 20:09:49
00302   3.020012      173,683      451       14,575        8,316     168.10  26-10-2025 20:09:47
00303   3.030013      174,120      437       14,575        8,645     162.31  26-10-2025 20:09:47
00304   3.040015      174,601      481       14,575        8,645     178.68  26-10-2025 20:09:47
00305   3.050001      175,117      516       14,575        8,844     191.59  26-10-2025 20:09:46
00306   3.060016      175,594      477       14,575        8,910     176.64  26-10-2025 20:09:45
00307   3.070007      176,056      462       14,575        8,844     172.65  26-10-2025 20:09:45
00308   3.080012      176,604      548       14,575        8,710     202.63  26-10-2025 20:09:45
00309   3.090007      177,138      534       14,575        8,512     198.02  26-10-2025 20:09:44
00310   3.100004      177,952      814       14,574        8,512     303.43  26-10-2025 20:09:46
  Particles out: 1  (total out: 67)  -  Current np: 14,574
00311   3.110007      178,836      884       14,574        8,316     330.83  26-10-2025 20:09:48
00312   3.120010      179,702      866       14,573        8,052     326.22  26-10-2025 20:09:49
  Particles out: 1  (total out: 68)  -  Current np: 14,573
00313   3.130012      180,452      750       14,573        8,122     282.80  26-10-2025 20:09:50
00314   3.140009      181,070      618       14,573        8,253     233.27  26-10-2025 20:09:50
00315   3.150016      181,602      532       14,573        8,515     199.48  26-10-2025 20:09:50
00316   3.160010      182,135      533       14,573        8,777     200.05  26-10-2025 20:09:49
00317   3.170010      182,649      514       14,573        8,908     192.31  26-10-2025 20:09:49
00318   3.180015      183,151      502       14,573        8,908     187.29  26-10-2025 20:09:49
00319   3.190014      183,599      448       14,573        9,039     167.29  26-10-2025 20:09:48
00320   3.200009      184,036      437       14,573        8,908     162.80  26-10-2025 20:09:47
00321   3.210001      184,447      411       14,573        8,840     153.43  26-10-2025 20:09:47
00322   3.220002      184,850      403       14,573        8,646     150.10  26-10-2025 20:09:46
00323   3.230016      185,304      454       14,573        8,384     169.59  26-10-2025 20:09:45
00324   3.240009      185,738      434       14,573        8,253     163.67  26-10-2025 20:09:44
00325   3.250002      186,189      451       14,573        7,800     169.95  26-10-2025 20:09:44
00326   3.260011      186,583      394       14,573        7,991     147.14  26-10-2025 20:09:44
00327   3.270010      186,963      380       14,573        8,122     140.44  26-10-2025 20:09:42
00328   3.280025      187,330      367       14,573        8,448     134.54  26-10-2025 20:09:41
00329   3.290021      187,686      356       14,573        8,580     130.79  26-10-2025 20:09:41
00330   3.300015      188,051      365       14,573        8,712     134.07  26-10-2025 20:09:39
00331   3.310012      188,556      505       14,573        8,778     185.12  26-10-2025 20:09:39
00332   3.320008      189,163      607       14,573        8,646     222.57  26-10-2025 20:09:39
00333   3.330005      190,019      856       14,570        8,515     314.47  26-10-2025 20:09:40
  Particles out: 3  (total out: 71)  -  Current np: 14,570
00334   3.340021      190,791      772       14,570        8,384     283.82  26-10-2025 20:09:41
00335   3.350003      191,184      393       14,570        8,320     145.16  26-10-2025 20:09:41
00336   3.360014      191,615      431       14,570        8,253     159.37  26-10-2025 20:09:40
00337   3.370003      192,072      457       14,570        7,991     169.86  26-10-2025 20:09:39
00338   3.380006      192,612      540       14,570        8,122     201.41  26-10-2025 20:09:39
00339   3.390015      193,243      631       14,570        8,253     236.37  26-10-2025 20:09:39
00340   3.400011      193,791      548       14,570        8,384     204.58  26-10-2025 20:09:39
00341   3.410009      194,348      557       14,570        8,646     207.89  26-10-2025 20:09:39
00342   3.420014      194,969      621       14,570        8,777     231.74  26-10-2025 20:09:40
00343   3.430006      195,540      571       14,570        8,844     212.94  26-10-2025 20:09:39
00344   3.440020      196,059      519       14,570        8,844     193.21  26-10-2025 20:09:39
00345   3.450007      196,531      472       14,570        8,908     176.18  26-10-2025 20:09:38
00346   3.460000      197,344      813       14,570        8,908     303.34  26-10-2025 20:09:39
00347   3.470013      198,105      761       14,569        8,844     284.88  26-10-2025 20:09:40
  Particles out: 1  (total out: 72)  -  Current np: 14,569
00348   3.480017      198,693      588       14,569        8,448     220.26  26-10-2025 20:09:41
00349   3.490005      199,269      576       14,569        8,253     217.74  26-10-2025 20:09:41
00350   3.500012      199,874      605       14,569        7,800     229.60  26-10-2025 20:09:41
00351   3.510000      200,498      624       14,569        7,991     236.50  26-10-2025 20:09:41
00352   3.520005      201,113      615       14,569        8,122     231.04  26-10-2025 20:09:41
00353   3.530003      201,849      736       14,569        8,184     275.57  26-10-2025 20:09:41
00354   3.540000      202,497      648       14,569        8,316     241.61  26-10-2025 20:09:42
00355   3.550003      203,200      703       14,569        8,384     261.57  26-10-2025 20:09:42
00356   3.560017      203,776      576       14,569        8,580     213.59  26-10-2025 20:09:43
00357   3.570017      204,427      651       14,569        8,320     241.85  26-10-2025 20:09:43
00358   3.580017      204,937      510       14,569        8,320     188.96  26-10-2025 20:09:43
00359   3.590014      205,485      548       14,569        8,320     203.35  26-10-2025 20:09:43
00360   3.600010      206,026      541       14,569        8,127     200.52  26-10-2025 20:09:42
00361   3.610008      206,541      515       14,569        8,253     191.54  26-10-2025 20:09:42
00362   3.620010      207,226      685       14,569        8,052     255.43  26-10-2025 20:09:42
00363   3.630010      207,879      653       14,569        8,122     244.69  26-10-2025 20:09:43
00364   3.640013      208,503      624       14,569        8,253     234.34  26-10-2025 20:09:43
00365   3.650005      209,162      659       14,569        8,778     246.46  26-10-2025 20:09:44
00366   3.660007      209,709      547       14,569        9,045     204.80  26-10-2025 20:09:44
00367   3.670004      210,279      570       14,569        9,180     214.21  26-10-2025 20:09:43
00368   3.680010      210,813      534       14,569        9,248     200.74  26-10-2025 20:09:43
00369   3.690006      211,288      475       14,569        9,315     178.81  26-10-2025 20:09:43
00370   3.700015      211,726      438       14,569        9,180     164.05  26-10-2025 20:09:42
00371   3.710008      212,200      474       14,569        9,112     177.32  26-10-2025 20:09:42
00372   3.720016      212,908      708       14,569        8,911     265.86  26-10-2025 20:09:43
00373   3.730008      213,538      630       14,569        8,448     238.47  26-10-2025 20:09:43
00374   3.740001      214,050      512       14,569        8,253     196.45  26-10-2025 20:09:42
00375   3.750007      214,540      490       14,569        7,800     186.03  26-10-2025 20:09:42
00376   3.760021      214,993      453       14,569        8,184     169.35  26-10-2025 20:09:42
00377   3.770015      215,465      472       14,569        8,316     175.82  26-10-2025 20:09:41
00378   3.780001      215,957      492       14,569        8,448     182.59  26-10-2025 20:09:41
00379   3.790012      216,415      458       14,569        8,580     169.04  26-10-2025 20:09:40
00380   3.800005      216,898      483       14,569        8,712     177.95  26-10-2025 20:09:40
00381   3.810003      217,380      482       14,569        8,778     176.96  26-10-2025 20:09:39
00382   3.820005      217,960      580       14,569        8,712     212.87  26-10-2025 20:09:40
00383   3.830012      218,516      556       14,569        8,580     204.40  26-10-2025 20:09:40
00384   3.840011      219,009      493       14,569        8,448     182.48  26-10-2025 20:09:39
00385   3.850016      219,630      621       14,569        8,316     230.31  26-10-2025 20:09:40
00386   3.860003      220,265      635       14,569        8,253     237.10  26-10-2025 20:09:39
00387   3.870001      220,856      591       14,569        8,052     221.24  26-10-2025 20:09:39
00388   3.880009      221,329      473       14,569        8,184     176.69  26-10-2025 20:09:39
00389   3.890008      221,759      430       14,569        8,253     160.29  26-10-2025 20:09:39
00390   3.900010      222,194      435       14,569        8,580     161.13  26-10-2025 20:09:38
00391   3.910014      222,610      416       14,569        8,778     153.38  26-10-2025 20:09:38
00392   3.920008      223,085      475       14,569        8,911     174.97  26-10-2025 20:09:38
00393   3.930019      223,529      444       14,569        9,246     163.88  26-10-2025 20:09:36
00394   3.940002      224,174      645       14,569        9,380     238.26  26-10-2025 20:09:37
00395   3.950010      224,997      823       14,552        9,246     307.03  26-10-2025 20:09:38
  Particles out: 17  (total out: 89)  -  Current np: 14,552
00396   3.960005      225,762      765       14,552        9,044     285.10  26-10-2025 20:09:39
00397   3.970010      226,612      850       14,552        8,844     316.94  26-10-2025 20:09:40
00398   3.980007      227,403      791       14,552        8,448     295.99  26-10-2025 20:09:41
00399   3.990008      228,054      651       14,552        8,253     247.60  26-10-2025 20:09:41
00400   4.000010      228,630      576       14,552        7,800     219.49  26-10-2025 20:09:41

[Simulation finished  26-10-2025 20:09:41]
Particles of simulation (initial): 14,641
DTs adjusted to DtMin............: 57,303
Excluded particles...............: 89
Excluded particles due to Density: 89
Total Runtime....................: 857.606934 sec.
Simulation Runtime...............: 857.590149 sec.
Runtime per physical second......: 214.397003 sec.
Steps per second.................: 266.595886
Steps of simulation..............: 228,630
PART files.......................: 401
Maximum number of particles......: 14,641
Maximum number of cells..........: 9,990
CPU Memory.......................: 3,258,505 (3.11 MiB)
 
[CPU Timers]
VA-Init..........................: 0.016803 sec.
NL-Limits........................: 24.548215 sec.
NL-MakeSort......................: 66.022362 sec.
NL-SortData......................: 62.013981 sec.
NL-OutCheck......................: 0.000107 sec.
CF-PreForces.....................: 104.053736 sec.
CF-PreMDBC.......................: 0 sec.
CF-Forces........................: 273.196451 sec.
SU-Shifting......................: 0 sec.
SU-ComputeStep...................: 314.919649 sec.
SU-Floating......................: 0 sec.
SU-Motion........................: 11.002096 sec.
SU-Periodic......................: 0 sec.
SU-ResizeNp......................: 0 sec.
SU-SavePart......................: 1.565982 sec.
SU-Chrono........................: 0 sec.
SU-Moorings......................: 0 sec.
SU-InOut.........................: 0 sec.
SU-Gauges........................: 0 sec.
SU-FlexStruc.....................: 0 sec.
 
[Output files]
- CfgGauge_InitPoints.vtk..: Saves points used for gauge calculations (by JGaugeSystem).
- CfgInit_Domain.vtk.......: Saves the limits of the case and the simulation domain limits.
- CfgInit_MapCells.vtk.....: Saves the cell division of the simulation domain.
- CfgOutputParts_Scheme.vtk: Saves VTK file with OutputParts filters configurations.
- Run.csv..................: One line CSV file with execution parameters and other simulation data.
- Run.out..................: Log file of the simulation.
- RunPARTs.csv.............: Saves extra information of simulated PARTs.
- data/PartInfo.ibi4.......: Binary file with execution information for each instant (input for PartInfo program).
- data/PartMotionRef.ibi4..: Main binary file with motion reference data of moving and floating objects during simulation.
- data/PartOut_???.obi4....: Binary file with particles excluded during simulation (input for PartVtkOut program).
- data/Part_????.bi4.......: Binary file with particle data in different instants.
- data/Part_Head.ibi4......: Binary file with basic information of simulation data.
 
[WARNINGS]
1. 1 DTs adjusted to DtMin (t:0.0131596, nstep:545)
2. 10 DTs adjusted to DtMin (t:0.0132149, nstep:550)
3. 100 DTs adjusted to DtMin (t:0.0137126, nstep:595)
4. 1000 DTs adjusted to DtMin (t:0.0186896, nstep:1045)
5. 10000 DTs adjusted to DtMin (t:0.123552, nstep:9229)
 
[References]
- Official solver reference DualSPHysics v5.0: J.M. Dominguez, G. Fourtakas,
    C. Altomare, R.B. Canelas, A. Tafuni, O. Garcia-Feal, I. Martinez-Estevez,
    A. Mokos, R. Vacondio, A.J.C. Crespo, B.D. Rogers, P.K. Stansby, M. Gomez-Gesteira.
    2022. DualSPHysics: from fluid dynamics to multiphysics problems.
    Computational Particle Mechanics, 9:867-895. doi: https://doi.org/10.1007/s40571-021-00404-2

- Optimised CPU multi-core and GPU implementation (Dominguez et al., 2013  https://doi.org/10.1016/j.cpc.2012.10.015)
- Dynamic boundary conditions (Crespo et al., 2007  https://doi.org/10.3970/cmc.2007.005.173)
- Viscosity: Artificial (Monaghan, 1992  https://doi.org/10.1146/annurev.aa.30.090192.002551)
- Kernel: Quintic Wendland (Wendland, 1995  https://doi.org/10.1007/BF02123482)
- Time integration scheme: Symplectic (Leimkhuler, 1996  https://doi.org/10.1007/978-3-319-16375-8_1)

Finished execution (code=0).

[Return code: 0]
